Mass Spectrum: Dodecane
Formula: C12H26
CAS: 112-40-3
Molecular weight: 170
Origin: Department of Chemistry, UWI, Mona, JAMAICA
m/z	RELATIVE ABUNDANCE
14	3
15	2
26	2
27	75
28	21
29	159
30	3
38	1
39	40
40	7
41	233
42	85
43	778
44	25
51	2
52	1
53	9
54	9
55	101
56	134
57	999
58	46
65	1
67	5
68	7
69	45
70	109
71	514
72	29
81	1
82	6
83	20
84	72
85	303
86	19
96	1
97	9
98	55
99	65
100	5
111	2
112	32
113	57
114	5
126	15
127	41
128	4
140	7
141	21
142	2
155	18
170	59
171	8
